MODEL 1
REMARK VINA RESULT:      -6.6      0.000      0.000
REMARK  1 active torsions:
REMARK  status: ('A' for Active; 'I' for Inactive)
REMARK    1  A    between atoms: C_11  and  N_13 
ROOT
HETATM    1  C   LIG     1       6.803   3.543  85.372  1.00  0.00     0.182 A 
HETATM    2  N   LIG     1       6.937   2.619  86.306  1.00  0.00    -0.336 N 
ATOM      3  HN  LIG     1       7.631   1.874  86.360  1.00  0.00     0.168 HD
HETATM    4  C   LIG     1       5.937   2.893  87.178  1.00  0.00     0.141 A 
HETATM    5  C   LIG     1       5.192   3.965  86.802  1.00  0.00     0.146 A 
HETATM    6  N   LIG     1       5.750   4.388  85.631  1.00  0.00    -0.345 N 
HETATM    7  C   LIG     1       4.071   4.452  87.537  1.00  0.00     0.278 A 
HETATM    8  O   LIG     1       3.427   5.429  87.187  1.00  0.00    -0.265 OA
HETATM    9  N   LIG     1       3.786   3.699  88.667  1.00  0.00    -0.298 N 
ATOM     10  HN  LIG     1       2.995   3.945  89.262  1.00  0.00     0.171 HD
HETATM   11  C   LIG     1       4.534   2.676  88.961  1.00  0.00     0.159 A 
HETATM   12  N   LIG     1       5.642   2.229  88.293  1.00  0.00    -0.317 N 
HETATM   13  H   LIG     1       5.439   5.166  85.065  1.00  0.00     0.167 HD
HETATM   14  H   LIG     1       6.117   1.380  88.550  1.00  0.00     0.170 HD
ENDROOT
BRANCH  11  15
HETATM   15  N   LIG     1       4.213   1.905  90.032  1.00  0.00    -0.274 NA
HETATM   16  H   LIG     1       3.577   2.369  90.674  1.00  0.00     0.127 HD
HETATM   17  H   LIG     1       4.957   1.404  90.497  1.00  0.00     0.127 HD
ENDBRANCH  11  15
TORSDOF 1
ENDMDL
MODEL 2
REMARK VINA RESULT:      -6.3      1.188      3.263
REMARK  1 active torsions:
REMARK  status: ('A' for Active; 'I' for Inactive)
REMARK    1  A    between atoms: C_11  and  N_13 
ROOT
HETATM    1  C   LIG     1       4.941   2.823  89.622  1.00  0.00     0.182 A 
HETATM    2  N   LIG     1       5.572   2.259  88.608  1.00  0.00    -0.336 N 
ATOM      3  HN  LIG     1       6.205   1.459  88.627  1.00  0.00     0.168 HD
HETATM    4  C   LIG     1       5.183   2.990  87.538  1.00  0.00     0.141 A 
HETATM    5  C   LIG     1       4.325   3.991  87.869  1.00  0.00     0.146 A 
HETATM    6  N   LIG     1       4.167   3.885  89.219  1.00  0.00    -0.345 N 
HETATM    7  C   LIG     1       3.777   4.914  86.929  1.00  0.00     0.278 A 
HETATM    8  O   LIG     1       2.994   5.794  87.249  1.00  0.00    -0.265 OA
HETATM    9  N   LIG     1       4.236   4.716  85.635  1.00  0.00    -0.298 N 
ATOM     10  HN  LIG     1       3.924   5.327  84.880  1.00  0.00     0.171 HD
HETATM   11  C   LIG     1       5.067   3.746  85.390  1.00  0.00     0.159 A 
HETATM   12  N   LIG     1       5.560   2.823  86.272  1.00  0.00    -0.317 N 
HETATM   13  H   LIG     1       3.598   4.482  89.806  1.00  0.00     0.167 HD
HETATM   14  H   LIG     1       6.261   2.150  86.009  1.00  0.00     0.170 HD
ENDROOT
BRANCH  11  15
HETATM   15  N   LIG     1       5.562   3.596  84.133  1.00  0.00    -0.274 NA
HETATM   16  H   LIG     1       4.834   3.566  83.426  1.00  0.00     0.127 HD
HETATM   17  H   LIG     1       6.291   2.913  83.988  1.00  0.00     0.127 HD
ENDBRANCH  11  15
TORSDOF 1
ENDMDL
